1115
Coordinates of carbon atoms
C -0.294679 -0.151857 -0.000250
C -0.294679 -0.102786 -0.049322
C -0.294679 -0.102786 -0.000250
C -0.294679 -0.102786 0.048821
C -0.294679 -0.053714 -0.098393
C -0.294679 -0.053714 -0.049322
C -0.294679 -0.053714 -0.000250
C -0.294679 -0.053714 0.048821
C -0.294679 -0.053714 0.097893
C -0.294679 -0.004643 -0.147464
C -0.294679 -0.004643 -0.098393
C -0.294679 -0.004643 -0.049322
C -0.294679 -0.004643 -0.000250
C -0.294679 -0.004643 0.048821
C -0.294679 -0.004643 0.097893
C -0.294679 -0.004643 0.146964
C -0.245607 -0.250000 -0.000250
C -0.245607 -0.200929 -0.049322
C -0.245607 -0.200929 -0.000250
C -0.245607 -0.200929 0.048821
C -0.245607 -0.151857 -0.098393
C -0.245607 -0.151857 -0.049322
C -0.245607 -0.151857 -0.000250
C -0.245607 -0.151857 0.048821
C -0.245607 -0.151857 0.097893
C -0.245607 -0.102786 -0.147464
C -0.245607 -0.102786 -0.098393
C -0.245607 -0.102786 -0.049322
C -0.245607 -0.102786 -0.000250
C -0.245607 -0.102786 0.048821
C -0.245607 -0.102786 0.097893
C -0.245607 -0.102786 0.146964
C -0.245607 -0.053714 -0.196536
C -0.245607 -0.053714 -0.147464
C -0.245607 -0.053714 -0.098393
C -0.245607 -0.053714 -0.049322
C -0.245607 -0.053714 -0.000250
C -0.245607 -0.053714 0.048821
C -0.245607 -0.053714 0.097893
C -0.245607 -0.053714 0.146964
C -0.245607 -0.053714 0.196035
C -0.245607 -0.004643 -0.245607
C -0.245607 -0.004643 -0.196536
C -0.245607 -0.004643 -0.147464
C -0.245607 -0.004643 -0.098393
C -0.245607 -0.004643 -0.049322
C -0.245607 -0.004643 -0.000250
C -0.245607 -0.004643 0.048821
C -0.245607 -0.004643 0.097893
C -0.245607 -0.004643 0.146964
C -0.245607 -0.004643 0.196035
C -0.245607 -0.004643 0.245107
C -0.245607 0.044428 -0.196536
C -0.245607 0.044428 -0.147464
C -0.245607 0.044428 -0.098393
C -0.245607 0.044428 -0.049322
C -0.245607 0.044428 -0.000250
C -0.245607 0.044428 0.048821
C -0.245607 0.044428 0.097893
C -0.245607 0.044428 0.146964
C -0.245607 0.044428 0.196035
C -0.245607 0.093500 -0.196536
C -0.245607 0.093500 -0.147464
C -0.245607 0.093500 -0.098393
C -0.245607 0.093500 -0.049322
C -0.245607 0.093500 -0.000250
C -0.245607 0.093500 0.048821
C -0.245607 0.093500 0.097893
C -0.245607 0.093500 0.146964
C -0.245607 0.093500 0.196035
C -0.196536 -0.250000 -0.098393
C -0.196536 -0.250000 -0.049322
C -0.196536 -0.250000 -0.000250
C -0.196536 -0.250000 0.048821
C -0.196536 -0.250000 0.097893
C -0.196536 -0.200929 -0.147464
C -0.196536 -0.200929 -0.098393
C -0.196536 -0.200929 -0.049322
C -0.196536 -0.200929 -0.000250
C -0.196536 -0.200929 0.048821
C -0.196536 -0.200929 0.097893
C -0.196536 -0.200929 0.146964
C -0.196536 -0.151857 -0.196536
C -0.196536 -0.151857 -0.147464
C -0.196536 -0.151857 -0.098393
C -0.196536 -0.151857 -0.049322
C -0.196536 -0.151857 -0.000250
C -0.196536 -0.151857 0.048821
C -0.196536 -0.151857 0.097893
C -0.196536 -0.151857 0.146964
C -0.196536 -0.151857 0.196035
C -0.196536 -0.102786 -0.245607
C -0.196536 -0.102786 -0.196536
C -0.196536 -0.102786 -0.147464
C -0.196536 -0.102786 -0.098393
C -0.196536 -0.102786 -0.049322
C -0.196536 -0.102786 -0.000250
C -0.196536 -0.102786 0.048821
C -0.196536 -0.102786 0.097893
C -0.196536 -0.102786 0.146964
C -0.196536 -0.102786 0.196035
C -0.196536 -0.102786 0.245107
C -0.196536 -0.053714 -0.245607
C -0.196536 -0.053714 -0.196536
C -0.196536 -0.053714 -0.147464
C -0.196536 -0.053714 -0.098393
C -0.196536 -0.053714 -0.049322
C -0.196536 -0.053714 -0.000250
C -0.196536 -0.053714 0.048821
C -0.196536 -0.053714 0.097893
C -0.196536 -0.053714 0.146964
C -0.196536 -0.053714 0.196035
C -0.196536 -0.053714 0.245107
C -0.196536 -0.004643 -0.245607
C -0.196536 -0.004643 -0.196536
C -0.196536 -0.004643 -0.147464
C -0.196536 -0.004643 -0.098393
C -0.196536 -0.004643 -0.049322
C -0.196536 -0.004643 -0.000250
C -0.196536 -0.004643 0.048821
C -0.196536 -0.004643 0.097893
C -0.196536 -0.004643 0.146964
C -0.196536 -0.004643 0.196035
C -0.196536 -0.004643 0.245107
C -0.196536 0.044428 -0.245607
C -0.196536 0.044428 -0.196536
C -0.196536 0.044428 -0.147464
C -0.196536 0.044428 -0.098393
C -0.196536 0.044428 -0.049322
C -0.196536 0.044428 -0.000250
C -0.196536 0.044428 0.048821
C -0.196536 0.044428 0.097893
C -0.196536 0.044428 0.146964
C -0.196536 0.044428 0.196035
C -0.196536 0.044428 0.245107
C -0.196536 0.093500 -0.196536
C -0.196536 0.093500 -0.147464
C -0.196536 0.093500 -0.098393
C -0.196536 0.093500 -0.049322
C -0.196536 0.093500 -0.000250
C -0.196536 0.093500 0.048821
C -0.196536 0.093500 0.097893
C -0.196536 0.093500 0.146964
C -0.196536 0.093500 0.196035
C -0.196536 0.142571 -0.196536
C -0.196536 0.142571 -0.147464
C -0.196536 0.142571 -0.098393
C -0.196536 0.142571 -0.049322
C -0.196536 0.142571 -0.000250
C -0.196536 0.142571 0.048821
C -0.196536 0.142571 0.097893
C -0.196536 0.142571 0.146964
C -0.196536 0.142571 0.196035
C -0.196536 0.191643 -0.147464
C -0.196536 0.191643 -0.098393
C -0.196536 0.191643 -0.049322
C -0.196536 0.191643 -0.000250
C -0.196536 0.191643 0.048821
C -0.196536 0.191643 0.097893
C -0.196536 0.191643 0.146964
C -0.147464 -0.250000 -0.147464
C -0.147464 -0.250000 -0.098393
C -0.147464 -0.250000 -0.049322
C -0.147464 -0.250000 -0.000250
C -0.147464 -0.250000 0.048821
C -0.147464 -0.250000 0.097893
C -0.147464 -0.250000 0.146964
C -0.147464 -0.200929 -0.196536
C -0.147464 -0.200929 -0.147464
C -0.147464 -0.200929 -0.098393
C -0.147464 -0.200929 -0.049322
C -0.147464 -0.200929 -0.000250
C -0.147464 -0.200929 0.048821
C -0.147464 -0.200929 0.097893
C -0.147464 -0.200929 0.146964
C -0.147464 -0.200929 0.196035
C -0.147464 -0.151857 -0.196536
C -0.147464 -0.151857 -0.147464
C -0.147464 -0.151857 -0.098393
C -0.147464 -0.151857 -0.049322
C -0.147464 -0.151857 -0.000250
C -0.147464 -0.151857 0.048821
C -0.147464 -0.151857 0.097893
C -0.147464 -0.151857 0.146964
C -0.147464 -0.151857 0.196035
C -0.147464 -0.102786 -0.245607
C -0.147464 -0.102786 -0.196536
C -0.147464 -0.102786 -0.147464
C -0.147464 -0.102786 -0.098393
C -0.147464 -0.102786 -0.049322
C -0.147464 -0.102786 -0.000250
C -0.147464 -0.102786 0.048821
C -0.147464 -0.102786 0.097893
C -0.147464 -0.102786 0.146964
C -0.147464 -0.102786 0.196035
C -0.147464 -0.102786 0.245107
C -0.147464 -0.053714 -0.245607
C -0.147464 -0.053714 -0.196536
C -0.147464 -0.053714 -0.147464
C -0.147464 -0.053714 -0.098393
C -0.147464 -0.053714 -0.049322
C -0.147464 -0.053714 -0.000250
C -0.147464 -0.053714 0.048821
C -0.147464 -0.053714 0.097893
C -0.147464 -0.053714 0.146964
C -0.147464 -0.053714 0.196035
C -0.147464 -0.053714 0.245107
C -0.147464 -0.004643 -0.294679
C -0.147464 -0.004643 -0.245607
C -0.147464 -0.004643 -0.196536
C -0.147464 -0.004643 -0.147464
C -0.147464 -0.004643 -0.098393
C -0.147464 -0.004643 -0.049322
C -0.147464 -0.004643 -0.000250
C -0.147464 -0.004643 0.048821
C -0.147464 -0.004643 0.097893
C -0.147464 -0.004643 0.146964
C -0.147464 -0.004643 0.196035
C -0.147464 -0.004643 0.245107
C -0.147464 -0.004643 0.294178
C -0.147464 0.044428 -0.245607
C -0.147464 0.044428 -0.196536
C -0.147464 0.044428 -0.147464
C -0.147464 0.044428 -0.098393
C -0.147464 0.044428 -0.049322
C -0.147464 0.044428 -0.000250
C -0.147464 0.044428 0.048821
C -0.147464 0.044428 0.097893
C -0.147464 0.044428 0.146964
C -0.147464 0.044428 0.196035
C -0.147464 0.044428 0.245107
C -0.147464 0.093500 -0.245607
C -0.147464 0.093500 -0.196536
C -0.147464 0.093500 -0.147464
C -0.147464 0.093500 -0.098393
C -0.147464 0.093500 -0.049322
C -0.147464 0.093500 -0.000250
C -0.147464 0.093500 0.048821
C -0.147464 0.093500 0.097893
C -0.147464 0.093500 0.146964
C -0.147464 0.093500 0.196035
C -0.147464 0.093500 0.245107
C -0.147464 0.142571 -0.196536
C -0.147464 0.142571 -0.147464
C -0.147464 0.142571 -0.098393
C -0.147464 0.142571 -0.049322
C -0.147464 0.142571 -0.000250
C -0.147464 0.142571 0.048821
C -0.147464 0.142571 0.097893
C -0.147464 0.142571 0.146964
C -0.147464 0.142571 0.196035
C -0.147464 0.191643 -0.196536
C -0.147464 0.191643 -0.147464
C -0.147464 0.191643 -0.098393
C -0.147464 0.191643 -0.049322
C -0.147464 0.191643 -0.000250
C -0.147464 0.191643 0.048821
C -0.147464 0.191643 0.097893
C -0.147464 0.191643 0.146964
C -0.147464 0.191643 0.196035
C -0.147464 0.240714 -0.147464
C -0.147464 0.240714 -0.098393
C -0.147464 0.240714 -0.049322
C -0.147464 0.240714 -0.000250
C -0.147464 0.240714 0.048821
C -0.147464 0.240714 0.097893
C -0.147464 0.240714 0.146964
C -0.098393 -0.250000 -0.147464
C -0.098393 -0.250000 -0.098393
C -0.098393 -0.250000 -0.049322
C -0.098393 -0.250000 -0.000250
C -0.098393 -0.250000 0.048821
C -0.098393 -0.250000 0.097893
C -0.098393 -0.250000 0.146964
C -0.098393 -0.200929 -0.196536
C -0.098393 -0.200929 -0.147464
C -0.098393 -0.200929 -0.098393
C -0.098393 -0.200929 -0.049322
C -0.098393 -0.200929 -0.000250
C -0.098393 -0.200929 0.048821
C -0.098393 -0.200929 0.097893
C -0.098393 -0.200929 0.146964
C -0.098393 -0.200929 0.196035
C -0.098393 -0.151857 -0.196536
C -0.098393 -0.151857 -0.147464
C -0.098393 -0.151857 -0.098393
C -0.098393 -0.151857 -0.049322
C -0.098393 -0.151857 -0.000250
C -0.098393 -0.151857 0.048821
C -0.098393 -0.151857 0.097893
C -0.098393 -0.151857 0.146964
C -0.098393 -0.151857 0.196035
C -0.098393 -0.102786 -0.245607
C -0.098393 -0.102786 -0.196536
C -0.098393 -0.102786 -0.147464
C -0.098393 -0.102786 -0.098393
C -0.098393 -0.102786 -0.049322
C -0.098393 -0.102786 -0.000250
C -0.098393 -0.102786 0.048821
C -0.098393 -0.102786 0.097893
C -0.098393 -0.102786 0.146964
C -0.098393 -0.102786 0.196035
C -0.098393 -0.102786 0.245107
C -0.098393 -0.053714 -0.245607
C -0.098393 -0.053714 -0.196536
C -0.098393 -0.053714 -0.147464
C -0.098393 -0.053714 -0.098393
C -0.098393 -0.053714 -0.049322
C -0.098393 -0.053714 -0.000250
C -0.098393 -0.053714 0.048821
C -0.098393 -0.053714 0.097893
C -0.098393 -0.053714 0.146964
C -0.098393 -0.053714 0.196035
C -0.098393 -0.053714 0.245107
C -0.098393 -0.004643 -0.294679
C -0.098393 -0.004643 -0.245607
C -0.098393 -0.004643 -0.196536
C -0.098393 -0.004643 -0.147464
C -0.098393 -0.004643 -0.098393
C -0.098393 -0.004643 -0.049322
C -0.098393 -0.004643 -0.000250
C -0.098393 -0.004643 0.048821
C -0.098393 -0.004643 0.097893
C -0.098393 -0.004643 0.146964
C -0.098393 -0.004643 0.196035
C -0.098393 -0.004643 0.245107
C -0.098393 -0.004643 0.294178
C -0.098393 0.044428 -0.294679
C -0.098393 0.044428 -0.245607
C -0.098393 0.044428 -0.196536
C -0.098393 0.044428 -0.147464
C -0.098393 0.044428 -0.098393
C -0.098393 0.044428 -0.049322
C -0.098393 0.044428 -0.000250
C -0.098393 0.044428 0.048821
C -0.098393 0.044428 0.097893
C -0.098393 0.044428 0.146964
C -0.098393 0.044428 0.196035
C -0.098393 0.044428 0.245107
C -0.098393 0.044428 0.294178
C -0.098393 0.093500 -0.245607
C -0.098393 0.093500 -0.196536
C -0.098393 0.093500 -0.147464
C -0.098393 0.093500 -0.098393
C -0.098393 0.093500 -0.049322
C -0.098393 0.093500 -0.000250
C -0.098393 0.093500 0.048821
C -0.098393 0.093500 0.097893
C -0.098393 0.093500 0.146964
C -0.098393 0.093500 0.196035
C -0.098393 0.093500 0.245107
C -0.098393 0.142571 -0.245607
C -0.098393 0.142571 -0.196536
C -0.098393 0.142571 -0.147464
C -0.098393 0.142571 -0.098393
C -0.098393 0.142571 -0.049322
C -0.098393 0.142571 -0.000250
C -0.098393 0.142571 0.048821
C -0.098393 0.142571 0.097893
C -0.098393 0.142571 0.146964
C -0.098393 0.142571 0.196035
C -0.098393 0.142571 0.245107
C -0.098393 0.191643 -0.196536
C -0.098393 0.191643 -0.147464
C -0.098393 0.191643 -0.098393
C -0.098393 0.191643 -0.049322
C -0.098393 0.191643 -0.000250
C -0.098393 0.191643 0.048821
C -0.098393 0.191643 0.097893
C -0.098393 0.191643 0.146964
C -0.098393 0.191643 0.196035
C -0.098393 0.240714 -0.196536
C -0.098393 0.240714 -0.147464
C -0.098393 0.240714 -0.098393
C -0.098393 0.240714 -0.049322
C -0.098393 0.240714 -0.000250
C -0.098393 0.240714 0.048821
C -0.098393 0.240714 0.097893
C -0.098393 0.240714 0.146964
C -0.098393 0.240714 0.196035
C -0.049322 -0.250000 -0.147464
C -0.049322 -0.250000 -0.098393
C -0.049322 -0.250000 -0.049322
C -0.049322 -0.250000 -0.000250
C -0.049322 -0.250000 0.048821
C -0.049322 -0.250000 0.097893
C -0.049322 -0.250000 0.146964
C -0.049322 -0.200929 -0.196536
C -0.049322 -0.200929 -0.147464
C -0.049322 -0.200929 -0.098393
C -0.049322 -0.200929 -0.049322
C -0.049322 -0.200929 -0.000250
C -0.049322 -0.200929 0.048821
C -0.049322 -0.200929 0.097893
C -0.049322 -0.200929 0.146964
C -0.049322 -0.200929 0.196035
C -0.049322 -0.151857 -0.196536
C -0.049322 -0.151857 -0.147464
C -0.049322 -0.151857 -0.098393
C -0.049322 -0.151857 -0.049322
C -0.049322 -0.151857 -0.000250
C -0.049322 -0.151857 0.048821
C -0.049322 -0.151857 0.097893
C -0.049322 -0.151857 0.146964
C -0.049322 -0.151857 0.196035
C -0.049322 -0.102786 -0.245607
C -0.049322 -0.102786 -0.196536
C -0.049322 -0.102786 -0.147464
C -0.049322 -0.102786 -0.098393
C -0.049322 -0.102786 -0.049322
C -0.049322 -0.102786 -0.000250
C -0.049322 -0.102786 0.048821
C -0.049322 -0.102786 0.097893
C -0.049322 -0.102786 0.146964
C -0.049322 -0.102786 0.196035
C -0.049322 -0.102786 0.245107
C -0.049322 -0.053714 -0.245607
C -0.049322 -0.053714 -0.196536
C -0.049322 -0.053714 -0.147464
C -0.049322 -0.053714 -0.098393
C -0.049322 -0.053714 -0.049322
C -0.049322 -0.053714 -0.000250
C -0.049322 -0.053714 0.048821
C -0.049322 -0.053714 0.097893
C -0.049322 -0.053714 0.146964
C -0.049322 -0.053714 0.196035
C -0.049322 -0.053714 0.245107
C -0.049322 -0.004643 -0.294679
C -0.049322 -0.004643 -0.245607
C -0.049322 -0.004643 -0.196536
C -0.049322 -0.004643 -0.147464
C -0.049322 -0.004643 -0.098393
C -0.049322 -0.004643 -0.049322
C -0.049322 -0.004643 -0.000250
C -0.049322 -0.004643 0.048821
C -0.049322 -0.004643 0.097893
C -0.049322 -0.004643 0.146964
C -0.049322 -0.004643 0.196035
C -0.049322 -0.004643 0.245107
C -0.049322 -0.004643 0.294178
C -0.049322 0.044428 -0.294679
C -0.049322 0.044428 -0.245607
C -0.049322 0.044428 -0.196536
C -0.049322 0.044428 -0.147464
C -0.049322 0.044428 -0.098393
C -0.049322 0.044428 -0.049322
C -0.049322 0.044428 -0.000250
C -0.049322 0.044428 0.048821
C -0.049322 0.044428 0.097893
C -0.049322 0.044428 0.146964
C -0.049322 0.044428 0.196035
C -0.049322 0.044428 0.245107
C -0.049322 0.044428 0.294178
C -0.049322 0.093500 -0.294679
C -0.049322 0.093500 -0.245607
C -0.049322 0.093500 -0.196536
C -0.049322 0.093500 -0.147464
C -0.049322 0.093500 -0.098393
C -0.049322 0.093500 -0.049322
C -0.049322 0.093500 -0.000250
C -0.049322 0.093500 0.048821
C -0.049322 0.093500 0.097893
C -0.049322 0.093500 0.146964
C -0.049322 0.093500 0.196035
C -0.049322 0.093500 0.245107
C -0.049322 0.093500 0.294178
C -0.049322 0.142571 -0.245607
C -0.049322 0.142571 -0.196536
C -0.049322 0.142571 -0.147464
C -0.049322 0.142571 -0.098393
C -0.049322 0.142571 -0.049322
C -0.049322 0.142571 -0.000250
C -0.049322 0.142571 0.048821
C -0.049322 0.142571 0.097893
C -0.049322 0.142571 0.146964
C -0.049322 0.142571 0.196035
C -0.049322 0.142571 0.245107
C -0.049322 0.191643 -0.245607
C -0.049322 0.191643 -0.196536
C -0.049322 0.191643 -0.147464
C -0.049322 0.191643 -0.098393
C -0.049322 0.191643 -0.049322
C -0.049322 0.191643 -0.000250
C -0.049322 0.191643 0.048821
C -0.049322 0.191643 0.097893
C -0.049322 0.191643 0.146964
C -0.049322 0.191643 0.196035
C -0.049322 0.191643 0.245107
C -0.049322 0.240714 -0.196536
C -0.049322 0.240714 -0.147464
C -0.049322 0.240714 -0.098393
C -0.049322 0.240714 -0.049322
C -0.049322 0.240714 -0.000250
C -0.049322 0.240714 0.048821
C -0.049322 0.240714 0.097893
C -0.049322 0.240714 0.146964
C -0.049322 0.240714 0.196035
C -0.000250 -0.250000 -0.147464
C -0.000250 -0.250000 -0.098393
C -0.000250 -0.250000 -0.049322
C -0.000250 -0.250000 -0.000250
C -0.000250 -0.250000 0.048821
C -0.000250 -0.250000 0.097893
C -0.000250 -0.250000 0.146964
C -0.000250 -0.200929 -0.196536
C -0.000250 -0.200929 -0.147464
C -0.000250 -0.200929 -0.098393
C -0.000250 -0.200929 -0.049322
C -0.000250 -0.200929 -0.000250
C -0.000250 -0.200929 0.048821
C -0.000250 -0.200929 0.097893
C -0.000250 -0.200929 0.146964
C -0.000250 -0.200929 0.196035
C -0.000250 -0.151857 -0.196536
C -0.000250 -0.151857 -0.147464
C -0.000250 -0.151857 -0.098393
C -0.000250 -0.151857 -0.049322
C -0.000250 -0.151857 -0.000250
C -0.000250 -0.151857 0.048821
C -0.000250 -0.151857 0.097893
C -0.000250 -0.151857 0.146964
C -0.000250 -0.151857 0.196035
C -0.000250 -0.102786 -0.245607
C -0.000250 -0.102786 -0.196536
C -0.000250 -0.102786 -0.147464
C -0.000250 -0.102786 -0.098393
C -0.000250 -0.102786 -0.049322
C -0.000250 -0.102786 -0.000250
C -0.000250 -0.102786 0.048821
C -0.000250 -0.102786 0.097893
C -0.000250 -0.102786 0.146964
C -0.000250 -0.102786 0.196035
C -0.000250 -0.102786 0.245107
C -0.000250 -0.053714 -0.245607
C -0.000250 -0.053714 -0.196536
C -0.000250 -0.053714 -0.147464
C -0.000250 -0.053714 -0.098393
C -0.000250 -0.053714 -0.049322
C -0.000250 -0.053714 -0.000250
C -0.000250 -0.053714 0.048821
C -0.000250 -0.053714 0.097893
C -0.000250 -0.053714 0.146964
C -0.000250 -0.053714 0.196035
C -0.000250 -0.053714 0.245107
C -0.000250 -0.004643 -0.294679
C -0.000250 -0.004643 -0.245607
C -0.000250 -0.004643 -0.196536
C -0.000250 -0.004643 -0.147464
C -0.000250 -0.004643 -0.098393
C -0.000250 -0.004643 -0.049322
C -0.000250 -0.004643 -0.000250
C -0.000250 -0.004643 0.048821
C -0.000250 -0.004643 0.097893
C -0.000250 -0.004643 0.146964
C -0.000250 -0.004643 0.196035
C -0.000250 -0.004643 0.245107
C -0.000250 -0.004643 0.294178
C -0.000250 0.044428 -0.294679
C -0.000250 0.044428 -0.245607
C -0.000250 0.044428 -0.196536
C -0.000250 0.044428 -0.147464
C -0.000250 0.044428 -0.098393
C -0.000250 0.044428 -0.049322
C -0.000250 0.044428 -0.000250
C -0.000250 0.044428 0.048821
C -0.000250 0.044428 0.097893
C -0.000250 0.044428 0.146964
C -0.000250 0.044428 0.196035
C -0.000250 0.044428 0.245107
C -0.000250 0.044428 0.294178
C -0.000250 0.093500 -0.294679
C -0.000250 0.093500 -0.245607
C -0.000250 0.093500 -0.196536
C -0.000250 0.093500 -0.147464
C -0.000250 0.093500 -0.098393
C -0.000250 0.093500 -0.049322
C -0.000250 0.093500 -0.000250
C -0.000250 0.093500 0.048821
C -0.000250 0.093500 0.097893
C -0.000250 0.093500 0.146964
C -0.000250 0.093500 0.196035
C -0.000250 0.093500 0.245107
C -0.000250 0.093500 0.294178
C -0.000250 0.142571 -0.294679
C -0.000250 0.142571 -0.245607
C -0.000250 0.142571 -0.196536
C -0.000250 0.142571 -0.147464
C -0.000250 0.142571 -0.098393
C -0.000250 0.142571 -0.049322
C -0.000250 0.142571 -0.000250
C -0.000250 0.142571 0.048821
C -0.000250 0.142571 0.097893
C -0.000250 0.142571 0.146964
C -0.000250 0.142571 0.196035
C -0.000250 0.142571 0.245107
C -0.000250 0.142571 0.294178
C -0.000250 0.191643 -0.245607
C -0.000250 0.191643 -0.196536
C -0.000250 0.191643 -0.147464
C -0.000250 0.191643 -0.098393
C -0.000250 0.191643 -0.049322
C -0.000250 0.191643 -0.000250
C -0.000250 0.191643 0.048821
C -0.000250 0.191643 0.097893
C -0.000250 0.191643 0.146964
C -0.000250 0.191643 0.196035
C -0.000250 0.191643 0.245107
C -0.000250 0.240714 -0.245607
C -0.000250 0.240714 -0.196536
C -0.000250 0.240714 -0.147464
C -0.000250 0.240714 -0.098393
C -0.000250 0.240714 -0.049322
C -0.000250 0.240714 -0.000250
C -0.000250 0.240714 0.048821
C -0.000250 0.240714 0.097893
C -0.000250 0.240714 0.146964
C -0.000250 0.240714 0.196035
C -0.000250 0.240714 0.245107
C 0.048821 -0.250000 -0.147464
C 0.048821 -0.250000 -0.098393
C 0.048821 -0.250000 -0.049322
C 0.048821 -0.250000 -0.000250
C 0.048821 -0.250000 0.048821
C 0.048821 -0.250000 0.097893
C 0.048821 -0.250000 0.146964
C 0.048821 -0.200929 -0.196536
C 0.048821 -0.200929 -0.147464
C 0.048821 -0.200929 -0.098393
C 0.048821 -0.200929 -0.049322
C 0.048821 -0.200929 -0.000250
C 0.048821 -0.200929 0.048821
C 0.048821 -0.200929 0.097893
C 0.048821 -0.200929 0.146964
C 0.048821 -0.200929 0.196035
C 0.048821 -0.151857 -0.196536
C 0.048821 -0.151857 -0.147464
C 0.048821 -0.151857 -0.098393
C 0.048821 -0.151857 -0.049322
C 0.048821 -0.151857 -0.000250
C 0.048821 -0.151857 0.048821
C 0.048821 -0.151857 0.097893
C 0.048821 -0.151857 0.146964
C 0.048821 -0.151857 0.196035
C 0.048821 -0.102786 -0.245607
C 0.048821 -0.102786 -0.196536
C 0.048821 -0.102786 -0.147464
C 0.048821 -0.102786 -0.098393
C 0.048821 -0.102786 -0.049322
C 0.048821 -0.102786 -0.000250
C 0.048821 -0.102786 0.048821
C 0.048821 -0.102786 0.097893
C 0.048821 -0.102786 0.146964
C 0.048821 -0.102786 0.196035
C 0.048821 -0.102786 0.245107
C 0.048821 -0.053714 -0.245607
C 0.048821 -0.053714 -0.196536
C 0.048821 -0.053714 -0.147464
C 0.048821 -0.053714 -0.098393
C 0.048821 -0.053714 -0.049322
C 0.048821 -0.053714 -0.000250
C 0.048821 -0.053714 0.048821
C 0.048821 -0.053714 0.097893
C 0.048821 -0.053714 0.146964
C 0.048821 -0.053714 0.196035
C 0.048821 -0.053714 0.245107
C 0.048821 -0.004643 -0.294679
C 0.048821 -0.004643 -0.245607
C 0.048821 -0.004643 -0.196536
C 0.048821 -0.004643 -0.147464
C 0.048821 -0.004643 -0.098393
C 0.048821 -0.004643 -0.049322
C 0.048821 -0.004643 -0.000250
C 0.048821 -0.004643 0.048821
C 0.048821 -0.004643 0.097893
C 0.048821 -0.004643 0.146964
C 0.048821 -0.004643 0.196035
C 0.048821 -0.004643 0.245107
C 0.048821 -0.004643 0.294178
C 0.048821 0.044428 -0.294679
C 0.048821 0.044428 -0.245607
C 0.048821 0.044428 -0.196536
C 0.048821 0.044428 -0.147464
C 0.048821 0.044428 -0.098393
C 0.048821 0.044428 -0.049322
C 0.048821 0.044428 -0.000250
C 0.048821 0.044428 0.048821
C 0.048821 0.044428 0.097893
C 0.048821 0.044428 0.146964
C 0.048821 0.044428 0.196035
C 0.048821 0.044428 0.245107
C 0.048821 0.044428 0.294178
C 0.048821 0.093500 -0.294679
C 0.048821 0.093500 -0.245607
C 0.048821 0.093500 -0.196536
C 0.048821 0.093500 -0.147464
C 0.048821 0.093500 -0.098393
C 0.048821 0.093500 -0.049322
C 0.048821 0.093500 -0.000250
C 0.048821 0.093500 0.048821
C 0.048821 0.093500 0.097893
C 0.048821 0.093500 0.146964
C 0.048821 0.093500 0.196035
C 0.048821 0.093500 0.245107
C 0.048821 0.093500 0.294178
C 0.048821 0.142571 -0.245607
C 0.048821 0.142571 -0.196536
C 0.048821 0.142571 -0.147464
C 0.048821 0.142571 -0.098393
C 0.048821 0.142571 -0.049322
C 0.048821 0.142571 -0.000250
C 0.048821 0.142571 0.048821
C 0.048821 0.142571 0.097893
C 0.048821 0.142571 0.146964
C 0.048821 0.142571 0.196035
C 0.048821 0.142571 0.245107
C 0.048821 0.191643 -0.245607
C 0.048821 0.191643 -0.196536
C 0.048821 0.191643 -0.147464
C 0.048821 0.191643 -0.098393
C 0.048821 0.191643 -0.049322
C 0.048821 0.191643 -0.000250
C 0.048821 0.191643 0.048821
C 0.048821 0.191643 0.097893
C 0.048821 0.191643 0.146964
C 0.048821 0.191643 0.196035
C 0.048821 0.191643 0.245107
C 0.048821 0.240714 -0.196536
C 0.048821 0.240714 -0.147464
C 0.048821 0.240714 -0.098393
C 0.048821 0.240714 -0.049322
C 0.048821 0.240714 -0.000250
C 0.048821 0.240714 0.048821
C 0.048821 0.240714 0.097893
C 0.048821 0.240714 0.146964
C 0.048821 0.240714 0.196035
C 0.097893 -0.250000 -0.147464
C 0.097893 -0.250000 -0.098393
C 0.097893 -0.250000 -0.049322
C 0.097893 -0.250000 -0.000250
C 0.097893 -0.250000 0.048821
C 0.097893 -0.250000 0.097893
C 0.097893 -0.250000 0.146964
C 0.097893 -0.200929 -0.196536
C 0.097893 -0.200929 -0.147464
C 0.097893 -0.200929 -0.098393
C 0.097893 -0.200929 -0.049322
C 0.097893 -0.200929 -0.000250
C 0.097893 -0.200929 0.048821
C 0.097893 -0.200929 0.097893
C 0.097893 -0.200929 0.146964
C 0.097893 -0.200929 0.196035
C 0.097893 -0.151857 -0.196536
C 0.097893 -0.151857 -0.147464
C 0.097893 -0.151857 -0.098393
C 0.097893 -0.151857 -0.049322
C 0.097893 -0.151857 -0.000250
C 0.097893 -0.151857 0.048821
C 0.097893 -0.151857 0.097893
C 0.097893 -0.151857 0.146964
C 0.097893 -0.151857 0.196035
C 0.097893 -0.102786 -0.245607
C 0.097893 -0.102786 -0.196536
C 0.097893 -0.102786 -0.147464
C 0.097893 -0.102786 -0.098393
C 0.097893 -0.102786 -0.049322
C 0.097893 -0.102786 -0.000250
C 0.097893 -0.102786 0.048821
C 0.097893 -0.102786 0.097893
C 0.097893 -0.102786 0.146964
C 0.097893 -0.102786 0.196035
C 0.097893 -0.102786 0.245107
C 0.097893 -0.053714 -0.245607
C 0.097893 -0.053714 -0.196536
C 0.097893 -0.053714 -0.147464
C 0.097893 -0.053714 -0.098393
C 0.097893 -0.053714 -0.049322
C 0.097893 -0.053714 -0.000250
C 0.097893 -0.053714 0.048821
C 0.097893 -0.053714 0.097893
C 0.097893 -0.053714 0.146964
C 0.097893 -0.053714 0.196035
C 0.097893 -0.053714 0.245107
C 0.097893 -0.004643 -0.294679
C 0.097893 -0.004643 -0.245607
C 0.097893 -0.004643 -0.196536
C 0.097893 -0.004643 -0.147464
C 0.097893 -0.004643 -0.098393
C 0.097893 -0.004643 -0.049322
C 0.097893 -0.004643 -0.000250
C 0.097893 -0.004643 0.048821
C 0.097893 -0.004643 0.097893
C 0.097893 -0.004643 0.146964
C 0.097893 -0.004643 0.196035
C 0.097893 -0.004643 0.245107
C 0.097893 -0.004643 0.294178
C 0.097893 0.044428 -0.294679
C 0.097893 0.044428 -0.245607
C 0.097893 0.044428 -0.196536
C 0.097893 0.044428 -0.147464
C 0.097893 0.044428 -0.098393
C 0.097893 0.044428 -0.049322
C 0.097893 0.044428 -0.000250
C 0.097893 0.044428 0.048821
C 0.097893 0.044428 0.097893
C 0.097893 0.044428 0.146964
C 0.097893 0.044428 0.196035
C 0.097893 0.044428 0.245107
C 0.097893 0.044428 0.294178
C 0.097893 0.093500 -0.245607
C 0.097893 0.093500 -0.196536
C 0.097893 0.093500 -0.147464
C 0.097893 0.093500 -0.098393
C 0.097893 0.093500 -0.049322
C 0.097893 0.093500 -0.000250
C 0.097893 0.093500 0.048821
C 0.097893 0.093500 0.097893
C 0.097893 0.093500 0.146964
C 0.097893 0.093500 0.196035
C 0.097893 0.093500 0.245107
C 0.097893 0.142571 -0.245607
C 0.097893 0.142571 -0.196536
C 0.097893 0.142571 -0.147464
C 0.097893 0.142571 -0.098393
C 0.097893 0.142571 -0.049322
C 0.097893 0.142571 -0.000250
C 0.097893 0.142571 0.048821
C 0.097893 0.142571 0.097893
C 0.097893 0.142571 0.146964
C 0.097893 0.142571 0.196035
C 0.097893 0.142571 0.245107
C 0.097893 0.191643 -0.196536
C 0.097893 0.191643 -0.147464
C 0.097893 0.191643 -0.098393
C 0.097893 0.191643 -0.049322
C 0.097893 0.191643 -0.000250
C 0.097893 0.191643 0.048821
C 0.097893 0.191643 0.097893
C 0.097893 0.191643 0.146964
C 0.097893 0.191643 0.196035
C 0.097893 0.240714 -0.196536
C 0.097893 0.240714 -0.147464
C 0.097893 0.240714 -0.098393
C 0.097893 0.240714 -0.049322
C 0.097893 0.240714 -0.000250
C 0.097893 0.240714 0.048821
C 0.097893 0.240714 0.097893
C 0.097893 0.240714 0.146964
C 0.097893 0.240714 0.196035
C 0.146964 -0.250000 -0.147464
C 0.146964 -0.250000 -0.098393
C 0.146964 -0.250000 -0.049322
C 0.146964 -0.250000 -0.000250
C 0.146964 -0.250000 0.048821
C 0.146964 -0.250000 0.097893
C 0.146964 -0.250000 0.146964
C 0.146964 -0.200929 -0.196536
C 0.146964 -0.200929 -0.147464
C 0.146964 -0.200929 -0.098393
C 0.146964 -0.200929 -0.049322
C 0.146964 -0.200929 -0.000250
C 0.146964 -0.200929 0.048821
C 0.146964 -0.200929 0.097893
C 0.146964 -0.200929 0.146964
C 0.146964 -0.200929 0.196035
C 0.146964 -0.151857 -0.196536
C 0.146964 -0.151857 -0.147464
C 0.146964 -0.151857 -0.098393
C 0.146964 -0.151857 -0.049322
C 0.146964 -0.151857 -0.000250
C 0.146964 -0.151857 0.048821
C 0.146964 -0.151857 0.097893
C 0.146964 -0.151857 0.146964
C 0.146964 -0.151857 0.196035
C 0.146964 -0.102786 -0.245607
C 0.146964 -0.102786 -0.196536
C 0.146964 -0.102786 -0.147464
C 0.146964 -0.102786 -0.098393
C 0.146964 -0.102786 -0.049322
C 0.146964 -0.102786 -0.000250
C 0.146964 -0.102786 0.048821
C 0.146964 -0.102786 0.097893
C 0.146964 -0.102786 0.146964
C 0.146964 -0.102786 0.196035
C 0.146964 -0.102786 0.245107
C 0.146964 -0.053714 -0.245607
C 0.146964 -0.053714 -0.196536
C 0.146964 -0.053714 -0.147464
C 0.146964 -0.053714 -0.098393
C 0.146964 -0.053714 -0.049322
C 0.146964 -0.053714 -0.000250
C 0.146964 -0.053714 0.048821
C 0.146964 -0.053714 0.097893
C 0.146964 -0.053714 0.146964
C 0.146964 -0.053714 0.196035
C 0.146964 -0.053714 0.245107
C 0.146964 -0.004643 -0.294679
C 0.146964 -0.004643 -0.245607
C 0.146964 -0.004643 -0.196536
C 0.146964 -0.004643 -0.147464
C 0.146964 -0.004643 -0.098393
C 0.146964 -0.004643 -0.049322
C 0.146964 -0.004643 -0.000250
C 0.146964 -0.004643 0.048821
C 0.146964 -0.004643 0.097893
C 0.146964 -0.004643 0.146964
C 0.146964 -0.004643 0.196035
C 0.146964 -0.004643 0.245107
C 0.146964 -0.004643 0.294178
C 0.146964 0.044428 -0.245607
C 0.146964 0.044428 -0.196536
C 0.146964 0.044428 -0.147464
C 0.146964 0.044428 -0.098393
C 0.146964 0.044428 -0.049322
C 0.146964 0.044428 -0.000250
C 0.146964 0.044428 0.048821
C 0.146964 0.044428 0.097893
C 0.146964 0.044428 0.146964
C 0.146964 0.044428 0.196035
C 0.146964 0.044428 0.245107
C 0.146964 0.093500 -0.245607
C 0.146964 0.093500 -0.196536
C 0.146964 0.093500 -0.147464
C 0.146964 0.093500 -0.098393
C 0.146964 0.093500 -0.049322
C 0.146964 0.093500 -0.000250
C 0.146964 0.093500 0.048821
C 0.146964 0.093500 0.097893
C 0.146964 0.093500 0.146964
C 0.146964 0.093500 0.196035
C 0.146964 0.093500 0.245107
C 0.146964 0.142571 -0.196536
C 0.146964 0.142571 -0.147464
C 0.146964 0.142571 -0.098393
C 0.146964 0.142571 -0.049322
C 0.146964 0.142571 -0.000250
C 0.146964 0.142571 0.048821
C 0.146964 0.142571 0.097893
C 0.146964 0.142571 0.146964
C 0.146964 0.142571 0.196035
C 0.146964 0.191643 -0.196536
C 0.146964 0.191643 -0.147464
C 0.146964 0.191643 -0.098393
C 0.146964 0.191643 -0.049322
C 0.146964 0.191643 -0.000250
C 0.146964 0.191643 0.048821
C 0.146964 0.191643 0.097893
C 0.146964 0.191643 0.146964
C 0.146964 0.191643 0.196035
C 0.146964 0.240714 -0.147464
C 0.146964 0.240714 -0.098393
C 0.146964 0.240714 -0.049322
C 0.146964 0.240714 -0.000250
C 0.146964 0.240714 0.048821
C 0.146964 0.240714 0.097893
C 0.146964 0.240714 0.146964
C 0.196035 -0.250000 -0.098393
C 0.196035 -0.250000 -0.049322
C 0.196035 -0.250000 -0.000250
C 0.196035 -0.250000 0.048821
C 0.196035 -0.250000 0.097893
C 0.196035 -0.200929 -0.147464
C 0.196035 -0.200929 -0.098393
C 0.196035 -0.200929 -0.049322
C 0.196035 -0.200929 -0.000250
C 0.196035 -0.200929 0.048821
C 0.196035 -0.200929 0.097893
C 0.196035 -0.200929 0.146964
C 0.196035 -0.151857 -0.196536
C 0.196035 -0.151857 -0.147464
C 0.196035 -0.151857 -0.098393
C 0.196035 -0.151857 -0.049322
C 0.196035 -0.151857 -0.000250
C 0.196035 -0.151857 0.048821
C 0.196035 -0.151857 0.097893
C 0.196035 -0.151857 0.146964
C 0.196035 -0.151857 0.196035
C 0.196035 -0.102786 -0.245607
C 0.196035 -0.102786 -0.196536
C 0.196035 -0.102786 -0.147464
C 0.196035 -0.102786 -0.098393
C 0.196035 -0.102786 -0.049322
C 0.196035 -0.102786 -0.000250
C 0.196035 -0.102786 0.048821
C 0.196035 -0.102786 0.097893
C 0.196035 -0.102786 0.146964
C 0.196035 -0.102786 0.196035
C 0.196035 -0.102786 0.245107
C 0.196035 -0.053714 -0.245607
C 0.196035 -0.053714 -0.196536
C 0.196035 -0.053714 -0.147464
C 0.196035 -0.053714 -0.098393
C 0.196035 -0.053714 -0.049322
C 0.196035 -0.053714 -0.000250
C 0.196035 -0.053714 0.048821
C 0.196035 -0.053714 0.097893
C 0.196035 -0.053714 0.146964
C 0.196035 -0.053714 0.196035
C 0.196035 -0.053714 0.245107
C 0.196035 -0.004643 -0.245607
C 0.196035 -0.004643 -0.196536
C 0.196035 -0.004643 -0.147464
C 0.196035 -0.004643 -0.098393
C 0.196035 -0.004643 -0.049322
C 0.196035 -0.004643 -0.000250
C 0.196035 -0.004643 0.048821
C 0.196035 -0.004643 0.097893
C 0.196035 -0.004643 0.146964
C 0.196035 -0.004643 0.196035
C 0.196035 -0.004643 0.245107
C 0.196035 0.044428 -0.245607
C 0.196035 0.044428 -0.196536
C 0.196035 0.044428 -0.147464
C 0.196035 0.044428 -0.098393
C 0.196035 0.044428 -0.049322
C 0.196035 0.044428 -0.000250
C 0.196035 0.044428 0.048821
C 0.196035 0.044428 0.097893
C 0.196035 0.044428 0.146964
C 0.196035 0.044428 0.196035
C 0.196035 0.044428 0.245107
C 0.196035 0.093500 -0.196536
C 0.196035 0.093500 -0.147464
C 0.196035 0.093500 -0.098393
C 0.196035 0.093500 -0.049322
C 0.196035 0.093500 -0.000250
C 0.196035 0.093500 0.048821
C 0.196035 0.093500 0.097893
C 0.196035 0.093500 0.146964
C 0.196035 0.093500 0.196035
C 0.196035 0.142571 -0.196536
C 0.196035 0.142571 -0.147464
C 0.196035 0.142571 -0.098393
C 0.196035 0.142571 -0.049322
C 0.196035 0.142571 -0.000250
C 0.196035 0.142571 0.048821
C 0.196035 0.142571 0.097893
C 0.196035 0.142571 0.146964
C 0.196035 0.142571 0.196035
C 0.196035 0.191643 -0.147464
C 0.196035 0.191643 -0.098393
C 0.196035 0.191643 -0.049322
C 0.196035 0.191643 -0.000250
C 0.196035 0.191643 0.048821
C 0.196035 0.191643 0.097893
C 0.196035 0.191643 0.146964
C 0.245107 -0.250000 -0.000250
C 0.245107 -0.200929 -0.049322
C 0.245107 -0.200929 -0.000250
C 0.245107 -0.200929 0.048821
C 0.245107 -0.151857 -0.098393
C 0.245107 -0.151857 -0.049322
C 0.245107 -0.151857 -0.000250
C 0.245107 -0.151857 0.048821
C 0.245107 -0.151857 0.097893
C 0.245107 -0.102786 -0.147464
C 0.245107 -0.102786 -0.098393
C 0.245107 -0.102786 -0.049322
C 0.245107 -0.102786 -0.000250
C 0.245107 -0.102786 0.048821
C 0.245107 -0.102786 0.097893
C 0.245107 -0.102786 0.146964
C 0.245107 -0.053714 -0.196536
C 0.245107 -0.053714 -0.147464
C 0.245107 -0.053714 -0.098393
C 0.245107 -0.053714 -0.049322
C 0.245107 -0.053714 -0.000250
C 0.245107 -0.053714 0.048821
C 0.245107 -0.053714 0.097893
C 0.245107 -0.053714 0.146964
C 0.245107 -0.053714 0.196035
C 0.245107 -0.004643 -0.245607
C 0.245107 -0.004643 -0.196536
C 0.245107 -0.004643 -0.147464
C 0.245107 -0.004643 -0.098393
C 0.245107 -0.004643 -0.049322
C 0.245107 -0.004643 -0.000250
C 0.245107 -0.004643 0.048821
C 0.245107 -0.004643 0.097893
C 0.245107 -0.004643 0.146964
C 0.245107 -0.004643 0.196035
C 0.245107 -0.004643 0.245107
C 0.245107 0.044428 -0.196536
C 0.245107 0.044428 -0.147464
C 0.245107 0.044428 -0.098393
C 0.245107 0.044428 -0.049322
C 0.245107 0.044428 -0.000250
C 0.245107 0.044428 0.048821
C 0.245107 0.044428 0.097893
C 0.245107 0.044428 0.146964
C 0.245107 0.044428 0.196035
C 0.245107 0.093500 -0.196536
C 0.245107 0.093500 -0.147464
C 0.245107 0.093500 -0.098393
C 0.245107 0.093500 -0.049322
C 0.245107 0.093500 -0.000250
C 0.245107 0.093500 0.048821
C 0.245107 0.093500 0.097893
C 0.245107 0.093500 0.146964
C 0.245107 0.093500 0.196035
C 0.294178 -0.151857 -0.000250
C 0.294178 -0.102786 -0.049322
C 0.294178 -0.102786 -0.000250
C 0.294178 -0.102786 0.048821
C 0.294178 -0.053714 -0.098393
C 0.294178 -0.053714 -0.049322
C 0.294178 -0.053714 -0.000250
C 0.294178 -0.053714 0.048821
C 0.294178 -0.053714 0.097893
C 0.294178 -0.004643 -0.147464
C 0.294178 -0.004643 -0.098393
C 0.294178 -0.004643 -0.049322
C 0.294178 -0.004643 -0.000250
C 0.294178 -0.004643 0.048821
C 0.294178 -0.004643 0.097893
C 0.294178 -0.004643 0.146964
